data_Molecule from CHK

_cell_length_a		45.036040
_cell_length_b		56.105115
_cell_length_c		53.221970
_cell_angle_alpha	93.838135
_cell_angle_beta	89.754773
_cell_angle_gamma	94.067300
_symmetry_space_group_name_H-M	'P 1'
_symmetry_Int_Tables_number		1

loop_
	_symmetry_equiv_pos_as_xyz
	x,y,z

loop_
	_atom_site_label
	_atom_site_type_symbol
	_atom_site_fract_x
	_atom_site_fract_y
	_atom_site_fract_z
	N0	N	0.219611	0.210692	0.254875
	C1	C	0.202907	0.228198	0.266345
	C2	C	0.204931	0.247155	0.249834
	N3	N	0.222242	0.240839	0.229272
	C4	C	0.190345	0.268456	0.255704
	C5	C	0.190098	0.288623	0.238785
	C6	C	0.174595	0.268859	0.278507
	H7	H	0.162372	0.284306	0.283992
	C8	C	0.172092	0.249527	0.294025
	H9	H	0.158238	0.250864	0.310695
	C10	C	0.185298	0.228040	0.288117
	C11	C	0.180378	0.206816	0.303257
	C12	C	0.185602	0.312183	0.248140
	C13	C	0.181163	0.208633	0.329718
	C14	C	0.173110	0.184032	0.291312
	C15	C	0.192767	0.284712	0.212505
	C16	C	0.189911	0.302962	0.196412
	H17	H	0.196527	0.266943	0.204489
	C18	C	0.166629	0.164097	0.305044
	H19	H	0.171339	0.182200	0.270955
	C20	C	0.184161	0.326058	0.205985
	H21	H	0.191634	0.299408	0.176226
	C22	C	0.182491	0.330504	0.232167
	H23	H	0.184382	0.316244	0.268254
	C24	C	0.174758	0.188747	0.343645
	H25	H	0.186980	0.225946	0.339394
	C26	C	0.167185	0.166202	0.331443
	H27	H	0.160498	0.146784	0.295537
	H28	H	0.175281	0.190633	0.364010
	H29	H	0.178394	0.348301	0.239906
	C30	C	0.230228	0.219154	0.232479
	H31	H	0.226449	0.196112	0.262751
	C32	C	0.248489	0.204823	0.215176
	C33	C	0.270132	0.215986	0.199986
	C34	C	0.287653	0.202483	0.183723
	H35	H	0.272879	0.235401	0.201243
	C36	C	0.244489	0.179714	0.213352
	C37	C	0.283831	0.177377	0.182198
	H38	H	0.304286	0.211301	0.172137
	C39	C	0.261934	0.166199	0.197143
	H40	H	0.227250	0.170854	0.224353
	H41	H	0.258773	0.146839	0.195780
	C42	C	0.073771	0.036312	0.454702
	C43	C	0.068876	0.021103	0.432316
	C44	C	0.079274	0.026586	0.409246
	C45	C	0.095277	0.049467	0.407538
	C46	C	0.089649	0.058039	0.453872
	C47	C	0.100401	0.065344	0.430097
	C48	C	0.105509	0.057291	0.384403
	C49	C	0.119704	0.080122	0.381919
	C50	C	0.115197	0.087977	0.427683
	C51	C	0.124605	0.096092	0.404436
	C52	C	0.128539	0.088043	0.357887
	C53	C	0.140790	0.111013	0.356553
	C54	C	0.145255	0.126428	0.378847
	C55	C	0.138150	0.119823	0.402364
	H56	H	0.075145	0.014709	0.392556
	H57	H	0.093287	0.069849	0.470685
	H58	H	0.101685	0.045470	0.367577
	H59	H	0.118814	0.099865	0.444485
	H60	H	0.124849	0.076225	0.341089
	H61	H	0.141720	0.131908	0.418968
	N62	N	0.058880	0.025384	0.474395
	O63	O	0.051583	0.001229	0.439009
	C64	C	0.046052	0.005640	0.464441
	N65	N	0.149750	0.123944	0.336019
	O66	O	0.156994	0.148232	0.371338
	C67	C	0.158428	0.145179	0.345344
	C68	C	0.321419	0.133361	0.144951
	C69	C	0.335730	0.155079	0.136958
	C70	C	0.357670	0.155935	0.119332
	C71	C	0.366652	0.133503	0.108324
	C72	C	0.329495	0.111614	0.134946
	C73	C	0.352378	0.111177	0.116325
	C74	C	0.388915	0.132415	0.089889
	C75	C	0.398031	0.110699	0.078766
	C76	C	0.361558	0.089480	0.105323
	C77	C	0.383762	0.088422	0.086895
	C78	C	0.420627	0.110052	0.059836
	C79	C	0.428328	0.088213	0.049664
	C80	C	0.414026	0.066653	0.058053
	C81	C	0.392476	0.065929	0.075964
	H82	H	0.368131	0.172672	0.113573
	H83	H	0.318809	0.095018	0.140879
	H84	H	0.399542	0.149039	0.083864
	H85	H	0.350907	0.072859	0.111331
	H86	H	0.431237	0.126592	0.053685
	H87	H	0.382017	0.049253	0.081886
	N88	N	0.300154	0.139249	0.162973
	O89	O	0.322835	0.173604	0.150391
	C90	C	0.301751	0.162404	0.165446
	N91	N	0.448888	0.081913	0.031058
	O92	O	0.426186	0.047924	0.044582
	C93	C	0.446818	0.058772	0.028765
	C94	C	0.168723	0.363750	0.156649
	C95	C	0.161568	0.378169	0.178643
	C96	C	0.149291	0.399585	0.178165
	C97	C	0.142770	0.407678	0.153913
	C98	C	0.163690	0.371306	0.133151
	C99	C	0.150269	0.393423	0.131219
	C100	C	0.128607	0.428837	0.151450
	C101	C	0.120797	0.436666	0.128000
	C102	C	0.143289	0.401636	0.107749
	C103	C	0.128626	0.422548	0.105308
	C104	C	0.104846	0.457596	0.126096
	C105	C	0.096749	0.463677	0.102667
	C106	C	0.105019	0.449725	0.080677
	C107	C	0.120634	0.429900	0.081084
	H108	H	0.143874	0.410038	0.195192
	H109	H	0.168972	0.360515	0.116306
	H110	H	0.122810	0.439364	0.168375
	H111	H	0.148917	0.391013	0.090839
	H112	H	0.098694	0.467974	0.142969
	H113	H	0.126400	0.419571	0.064071
	N114	N	0.179461	0.342674	0.164317
	O115	O	0.168646	0.365769	0.199069
	C116	C	0.178635	0.344458	0.188676
	N117	N	0.079779	0.481809	0.095074
	O118	O	0.093492	0.459952	0.060336
	C119	C	0.078155	0.478755	0.070806
	C120	C	0.039114	-0.028549	0.492347
	C121	C	-0.040056	-0.026428	0.486680
	H122	H	-0.051599	-0.013990	0.475922
	H123	H	-0.056857	-0.038085	0.495544
	C124	C	0.023687	-0.010648	0.476376
	C125	C	0.015727	-0.045419	0.505321
	C126	C	-0.020678	-0.041862	0.468631
	C127	C	-0.020563	-0.011776	0.507284
	C128	C	0.003355	0.004278	0.493981
	C129	C	-0.004674	-0.059229	0.484869
	C130	C	0.003833	-0.025573	0.456264
	C131	C	-0.004582	-0.029845	0.522529
	H132	H	0.016890	0.014822	0.508286
	H133	H	0.008675	-0.070648	0.472609
	H134	H	-0.006809	-0.013407	0.444513
	H135	H	-0.021114	-0.041561	0.531656
	H136	H	-0.007476	0.016905	0.482921
	H137	H	-0.021262	-0.070971	0.493920
	H138	H	0.017657	-0.036624	0.444054
	H139	H	0.009051	-0.020093	0.537288
	H140	H	0.053426	-0.039321	0.480317
	H141	H	0.053149	-0.018337	0.506528
	C142	C	0.440186	0.028135	-0.007118
	C143	C	0.518965	0.021896	-0.007687
	H144	H	0.530786	0.009807	-0.020457
	H145	H	0.535436	0.031939	0.004617
	C146	C	0.456070	0.010323	-0.025248
	C147	C	0.462701	0.042395	0.011352
	C148	C	0.502929	0.039835	-0.023082
	C149	C	0.496508	0.007020	0.008258
	C150	C	0.472983	-0.006860	-0.009600
	C151	C	0.485813	0.056788	-0.004802
	C152	C	0.479675	0.024967	-0.040605
	C153	C	0.479751	0.024644	0.026215
	H154	H	0.457118	-0.017278	0.001631
	H155	H	0.474480	0.069266	-0.015660
	H156	H	0.491249	0.012841	-0.053544
	H157	H	0.495751	0.034664	0.038969
	H158	H	0.483972	-0.019466	-0.022416
	H159	H	0.501494	0.067360	0.007807
	H160	H	0.468346	0.036978	-0.052064
	H161	H	0.463981	0.014362	0.037649
	H162	H	0.428784	0.040615	-0.017911
	H163	H	0.423398	0.018151	0.003641
	C164	C	0.038831	0.536161	0.034750
	C165	C	0.041667	0.472608	0.035425
	H166	H	0.056685	0.461562	0.024419
	H167	H	0.027618	0.460825	0.046755
	C168	C	0.060984	0.521306	0.018788
	C169	C	0.018166	0.519950	0.050927
	C170	C	0.059939	0.491141	0.053375
	C171	C	0.022274	0.485168	0.016965
	C172	C	0.042792	0.502192	0.001536
	C173	C	0.037661	0.506625	0.068656
	C174	C	0.079913	0.508297	0.037419
	C175	C	0.000844	0.500647	0.032972
	H176	H	0.029262	0.511110	-0.011461
	H177	H	0.050174	0.519591	0.081497
	H178	H	0.095894	0.497907	0.026736
	H179	H	-0.013765	0.488979	0.043993
	H180	H	0.058100	0.491697	-0.009815
	H181	H	0.023270	0.495176	0.080078
	H182	H	0.092469	0.521586	0.049850
	H183	H	-0.013271	0.509590	0.020451
	H184	H	0.051198	0.549573	0.047195
	H185	H	0.025311	0.545584	0.022206
	C186	C	0.039060	0.907269	0.541310
	C187	C	0.061007	0.926165	0.548158
	C188	C	0.083195	0.924293	0.565021
	C189	C	0.083951	0.901996	0.576704
	C190	C	0.039174	0.885698	0.551956
	C191	C	0.061559	0.882617	0.570119
	C192	C	0.105603	0.898345	0.594619
	C193	C	0.106329	0.876928	0.606816
	C194	C	0.062337	0.861188	0.582190
	C195	C	0.083653	0.857726	0.600395
	C196	C	0.128334	0.873764	0.625353
	C197	C	0.127181	0.852646	0.637081
	C198	C	0.104464	0.834255	0.630626
	C199	C	0.083222	0.835858	0.612900
	H200	H	0.099610	0.938901	0.569869
	H201	H	0.022531	0.871280	0.546996
	H202	H	0.122374	0.912734	0.599509
	H203	H	0.045507	0.846823	0.577379
	H204	H	0.145303	0.887973	0.630152
	H205	H	0.066310	0.821533	0.608424
	N206	N	0.019875	0.915510	0.523902
	O207	O	0.054611	0.945395	0.534675
	C208	C	0.029538	0.937368	0.520757
	N209	N	0.144645	0.844694	0.656051
	O210	O	0.108540	0.815754	0.645690
	C211	C	0.133006	0.823647	0.660525
	C212	C	0.854837	0.881107	0.306429
	C213	C	0.861477	0.858531	0.315035
	C214	C	0.876687	0.855925	0.336563
	C215	C	0.886640	0.877379	0.351218
	C216	C	0.863800	0.901972	0.320079
	C217	C	0.880057	0.900611	0.342864
	C218	C	0.902863	0.876576	0.373490
	C219	C	0.913258	0.897264	0.388050
	C220	C	0.890204	0.921294	0.357567
	C221	C	0.906609	0.920504	0.379755
	C222	C	0.930286	0.895889	0.410409
	C223	C	0.940263	0.916768	0.423544
	C224	C	0.933385	0.939367	0.415142
	C225	C	0.917107	0.941963	0.394173
	H226	H	0.881445	0.838546	0.342605
	H227	H	0.858922	0.919233	0.313780
	H228	H	0.907835	0.859263	0.379697
	H229	H	0.885285	0.938609	0.351336
	H230	H	0.935398	0.878630	0.416573
	H231	H	0.912287	0.959351	0.388196
	N232	N	0.839292	0.876847	0.283756
	O233	O	0.849783	0.841188	0.297511
	C234	C	0.837010	0.853824	0.279398
	N235	N	0.957776	0.921004	0.445141
	O236	O	0.946583	0.956712	0.431943
	C237	C	0.960971	0.944027	0.449133
	C238	C	0.939258	0.032926	0.541606
	C239	C	0.939016	0.014602	0.558965
	C240	C	0.927850	0.016883	0.582714
	C241	C	0.916543	0.039450	0.590722
	C242	C	0.928040	0.054516	0.548410
	C243	C	0.916811	0.058433	0.573359
	C244	C	0.905815	0.043991	0.615197
	C245	C	0.896180	0.066339	0.623958
	C246	C	0.906645	0.080620	0.581950
	C247	C	0.896838	0.085382	0.606650
	C248	C	0.886670	0.070853	0.649374
	C249	C	0.879249	0.093496	0.657121
	C250	C	0.880424	0.111922	0.639853
	C251	C	0.888297	0.108685	0.615253
	H252	H	0.927985	0.002685	0.595517
	H253	H	0.928332	0.068640	0.535484
	H254	H	0.905573	0.029853	0.628158
	H255	H	0.907099	0.094823	0.569058
	H256	H	0.886167	0.056741	0.662325
	H257	H	0.888989	0.123056	0.602621
	N258	N	0.953159	0.024669	0.519578
	O259	O	0.952466	-0.004391	0.546953
	C260	C	0.960763	0.003456	0.523667
	N261	N	0.871191	0.103541	0.680666
	O262	O	0.872976	0.132556	0.653168
	C263	C	0.868348	0.125959	0.677609
	C264	C	0.553088	0.066987	0.932498
	C265	C	0.565241	0.076539	0.956081
	C266	C	0.590591	0.091159	0.958506
	C267	C	0.605897	0.096994	0.935782
	C268	C	0.566980	0.072384	0.910389
	C269	C	0.593894	0.087500	0.911506
	C270	C	0.632476	0.111569	0.936334
	C271	C	0.648189	0.117308	0.914442
	C272	C	0.609498	0.093385	0.889604
	C273	C	0.636182	0.107835	0.890161
	C274	C	0.675455	0.131978	0.915613
	C275	C	0.689874	0.136739	0.893558
	C276	C	0.677681	0.127282	0.869956
	C277	C	0.651809	0.113309	0.867471
	H278	H	0.599313	0.098108	0.976672
	H279	H	0.558043	0.065210	0.892363
	H280	H	0.641446	0.118627	0.954429
	H281	H	0.600554	0.086290	0.871511
	H282	H	0.684452	0.139035	0.933657
	H283	H	0.643096	0.106364	0.849300
	N284	N	0.527535	0.052455	0.937322
	O285	O	0.546727	0.067805	0.974563
	C286	C	0.524865	0.053358	0.961556
	N287	N	0.716421	0.150066	0.888851
	O288	O	0.697032	0.135082	0.851562
	C289	C	0.719602	0.148575	0.864637
	C290	C	0.290156	0.887951	0.880817
	C291	C	0.304631	0.894034	0.857975
	C292	C	0.328165	0.910502	0.856831
	C293	C	0.338951	0.922136	0.880200
	C294	C	0.299600	0.898932	0.903456
	C295	C	0.324400	0.916270	0.903692
	C296	C	0.363507	0.938961	0.881104
	C297	C	0.374878	0.950273	0.903749
	C298	C	0.335519	0.927785	0.926296
	C299	C	0.360218	0.944434	0.927202
	C300	C	0.400393	0.966961	0.904203
	C301	C	0.410691	0.977017	0.927017
	C302	C	0.395842	0.971046	0.949731
	C303	C	0.371368	0.955520	0.950670
	H304	H	0.338781	0.914717	0.839226
	H305	H	0.288829	0.894471	0.920929
	H306	H	0.374418	0.943303	0.863610
	H307	H	0.324659	0.923402	0.943798
	H308	H	0.411434	0.971279	0.886799
	H309	H	0.360653	0.951310	0.968235
	N310	N	0.267564	0.870191	0.874884
	O311	O	0.290343	0.879984	0.838757
	C312	C	0.268618	0.866141	0.850690
	N313	N	0.435053	0.993052	0.933432
	O314	O	0.411245	0.983635	0.969247
	C315	C	0.434566	0.996202	0.957707
	C316	C	0.638676	0.897672	0.107222
	C317	C	0.614777	0.879596	0.104337
	C318	C	0.587999	0.882984	0.093988
	C319	C	0.584091	0.906157	0.085149
	C320	C	0.635475	0.920186	0.099467
	C321	C	0.608078	0.924933	0.087999
	C322	C	0.557721	0.911116	0.073338
	C323	C	0.553572	0.933365	0.063768
	C324	C	0.603702	0.947334	0.078842
	C325	C	0.577489	0.952194	0.066698
	C326	C	0.526807	0.937611	0.051033
	C327	C	0.524446	0.959508	0.041499
	C328	C	0.548096	0.977771	0.044696
	C329	C	0.573983	0.975038	0.056872
	H330	H	0.570326	0.868872	0.091932
	H331	H	0.653447	0.934064	0.101454
	H332	H	0.539888	0.897088	0.071127
	H333	H	0.621592	0.961324	0.080948
	H334	H	0.509040	0.923589	0.048711
	H335	H	0.591611	0.989186	0.058946
	N336	N	0.662802	0.887537	0.117684
	O337	O	0.624766	0.859113	0.113339
	C338	C	0.653936	0.865442	0.120557
	N339	N	0.501902	0.968426	0.027746
	O340	O	0.539239	0.997345	0.033031
	C341	C	0.511441	0.989988	0.023156
	C342	C	0.957814	0.550586	0.079480
	C343	C	0.983082	0.566036	0.087327
	C344	C	0.981329	0.587521	0.100463
	C345	C	0.952110	0.595065	0.106124
	C346	C	0.929580	0.556937	0.085122
	C347	C	0.926040	0.579541	0.098373
	C348	C	0.947909	0.617396	0.118515
	C349	C	0.919584	0.625708	0.123251
	C350	C	0.897724	0.587597	0.103655
	C351	C	0.893544	0.610154	0.115495
	C352	C	0.915952	0.649061	0.134775
	C353	C	0.887704	0.656535	0.137706
	C354	C	0.862536	0.640931	0.129980
	C355	C	0.864327	0.618323	0.119486
	H356	H	1.000896	0.598923	0.106092
	H357	H	0.910205	0.545434	0.079184
	H358	H	0.967327	0.629016	0.124225
	H359	H	0.878296	0.576053	0.097801
	H360	H	0.935278	0.660748	0.140427
	H361	H	0.844790	0.606956	0.113709
	N362	N	0.967971	0.530742	0.065716
	O363	O	1.007912	0.555055	0.078501
	C364	C	0.996661	0.534226	0.065372
	N365	N	0.877411	0.678424	0.146636
	O366	O	0.837683	0.653509	0.134641
	C367	C	0.848759	0.675991	0.144167
	C368	C	0.913177	0.336158	0.906212
	C369	C	0.911896	0.352510	0.886895
	C370	C	0.921037	0.376131	0.889910
	C371	C	0.933121	0.384753	0.913988
	C372	C	0.924083	0.343896	0.929609
	C373	C	0.934606	0.368438	0.934014
	C374	C	0.944094	0.408607	0.918652
	C375	C	0.956924	0.417402	0.941741
	C376	C	0.946997	0.377344	0.957250
	C377	C	0.958397	0.401117	0.961797
	C378	C	0.968807	0.441637	0.945650
	C379	C	0.981827	0.448951	0.968378
	C380	C	0.982973	0.432715	0.987818
	C381	C	0.971752	0.409532	0.985483
	H382	H	0.919896	0.388095	0.874859
	H383	H	0.925305	0.331678	0.944427
	H384	H	0.943060	0.420755	0.903704
	H385	H	0.948153	0.365174	0.972165
	H386	H	0.967855	0.453774	0.930730
	H387	H	0.972995	0.397588	1.000541
	N388	N	0.902815	0.313496	0.896126
	O389	O	0.900585	0.339518	0.865729
	C390	C	0.896220	0.316246	0.872907
	N391	N	0.995944	0.470818	0.977185
	O392	O	0.997509	0.445150	1.007966
	C393	C	1.004753	0.467735	0.999768
	C394	C	0.147755	0.657951	0.900917
	C395	C	0.156163	0.638661	0.884159
	C396	C	0.154347	0.615366	0.889949
	C397	C	0.142388	0.610130	0.914171
	C398	C	0.136990	0.653684	0.924461
	C399	C	0.133600	0.629534	0.931523
	C400	C	0.138153	0.586580	0.921402
	C401	C	0.124908	0.580820	0.944372
	C402	C	0.121052	0.623828	0.954755
	C403	C	0.115948	0.600235	0.961630
	C404	C	0.119306	0.556548	0.950646
	C405	C	0.104597	0.552092	0.972659
	C406	C	0.095915	0.571429	0.989215
	C407	C	0.101390	0.594916	0.984830
	H408	H	0.160791	0.601070	0.876820
	H409	H	0.130339	0.668143	0.937294
	H410	H	0.144649	0.572098	0.908463
	H411	H	0.114326	0.638295	0.967605
	H412	H	0.125786	0.542050	0.937782
	H413	H	0.094429	0.609206	0.997723
	N414	N	0.151573	0.679009	0.888397
	O415	O	0.165149	0.648484	0.862021
	C416	C	0.161087	0.672670	0.866136
	N417	N	0.094152	0.530717	0.982697
	O418	O	0.080902	0.561388	1.008991
	C419	C	0.080239	0.536928	1.003162
	N420	N	0.195067	0.769901	0.800507
	C421	C	0.180307	0.755546	0.781591
	C422	C	0.176916	0.770927	0.761752
	N423	N	0.189511	0.793543	0.768838
	C424	C	0.162284	0.762246	0.739024
	C425	C	0.155902	0.777699	0.718196
	C426	C	0.152858	0.737834	0.737913
	H427	H	0.142920	0.729615	0.720680
	C428	C	0.155658	0.723228	0.758065
	H429	H	0.146784	0.704737	0.755928
	C430	C	0.168466	0.731732	0.781132
	C431	C	0.168939	0.716759	0.803087
	C432	C	0.131204	0.771916	0.702225
	C433	C	0.160386	0.725906	0.827080
	C434	C	0.176121	0.692735	0.800652
	C435	C	0.173190	0.798957	0.714018
	C436	C	0.166059	0.813762	0.695259
	H437	H	0.192343	0.804102	0.725876
	C438	C	0.174412	0.678375	0.821036
	H439	H	0.183165	0.685314	0.782441
	C440	C	0.141317	0.807753	0.679641
	H441	H	0.179374	0.830260	0.692689
	C442	C	0.124134	0.786434	0.683278
	H443	H	0.116760	0.756078	0.704989
	C444	C	0.158582	0.711705	0.847535
	H445	H	0.153822	0.744144	0.829389
	C446	C	0.165328	0.687650	0.844744
	H447	H	0.179761	0.659860	0.818617
	H448	H	0.151315	0.718892	0.865749
	H449	H	0.104761	0.781544	0.671590
	C450	C	0.199856	0.792523	0.791768
	H451	H	0.204157	0.764533	0.816337
	C452	C	0.216542	0.811966	0.806653
	C453	C	0.237028	0.827633	0.794891
	C454	C	0.253911	0.845449	0.808950
	H455	H	0.239543	0.825387	0.774607
	C456	C	0.212745	0.815009	0.832839
	C457	C	0.250526	0.848132	0.835202
	H458	H	0.269837	0.857266	0.799683
	C459	C	0.229514	0.832841	0.846918
	H460	H	0.196333	0.803452	0.841967
	H461	H	0.226638	0.835128	0.867127
	N462	N	0.757076	0.807894	0.181917
	C463	C	0.748385	0.790135	0.163471
	C464	C	0.768675	0.772090	0.165791
	N465	N	0.788484	0.779025	0.185068
	C466	C	0.766359	0.750731	0.149847
	C467	C	0.786971	0.731158	0.150763
	C468	C	0.743027	0.749220	0.132347
	H469	H	0.740322	0.733591	0.119257
	C470	C	0.724055	0.767685	0.129757
	H471	H	0.707366	0.765491	0.115011
	C472	C	0.726411	0.789187	0.144773
	C473	C	0.707214	0.809003	0.140594
	C474	C	0.777315	0.707143	0.144168
	C475	C	0.719384	0.832711	0.139600
	C476	C	0.676549	0.804620	0.135914
	C477	C	0.817239	0.735978	0.156943
	C478	C	0.837115	0.718033	0.155385
	H479	H	0.825433	0.754260	0.162064
	C480	C	0.658934	0.822857	0.130007
	H481	H	0.666493	0.786574	0.136956
	C482	C	0.827357	0.694365	0.147830
	H483	H	0.860504	0.722251	0.159476
	C484	C	0.796997	0.689092	0.142699
	H485	H	0.753930	0.702519	0.140511
	C486	C	0.701954	0.851063	0.133681
	H487	H	0.743111	0.836520	0.142439
	C488	C	0.671512	0.846326	0.128542
	H489	H	0.635444	0.818930	0.126220
	H490	H	0.711774	0.869130	0.132411
	H491	H	0.788934	0.670831	0.137377
	C492	C	0.781481	0.800319	0.194061
	H493	H	0.745683	0.822126	0.187790
	C494	C	0.795694	0.814163	0.215736
	C495	C	0.808647	0.802201	0.234783
	C496	C	0.822067	0.814892	0.255545
	H497	H	0.807941	0.782788	0.232934
	C498	C	0.796879	0.839298	0.217887
	C499	C	0.822943	0.840010	0.257780
	H500	H	0.831902	0.805385	0.270078
	C501	C	0.810256	0.852033	0.238643
	H502	H	0.787712	0.848802	0.203004
	H503	H	0.811236	0.871417	0.240246
	N504	N	0.828474	0.214900	0.815430
	C505	C	0.849394	0.220760	0.797204
	C506	C	0.845738	0.201702	0.778208
	N507	N	0.824655	0.184577	0.785772
	C508	C	0.861998	0.202496	0.755364
	C509	C	0.860600	0.182778	0.735129
	C510	C	0.880061	0.223588	0.752866
	H511	H	0.893395	0.225186	0.735996
	C512	C	0.882939	0.242324	0.771711
	H513	H	0.898058	0.257741	0.768554
	C514	C	0.867934	0.241634	0.794766
	C515	C	0.872901	0.260971	0.815072
	C516	C	0.863511	0.187552	0.709572
	C517	C	0.877603	0.255613	0.840127
	C518	C	0.874809	0.285260	0.809831
	C519	C	0.858002	0.158595	0.740822
	C520	C	0.859859	0.140161	0.722152
	H521	H	0.855692	0.154358	0.760321
	C522	C	0.881658	0.303340	0.828514
	H523	H	0.870786	0.289932	0.790763
	C524	C	0.863870	0.145237	0.696874
	H525	H	0.858798	0.121680	0.727000
	C526	C	0.865055	0.169227	0.690785
	H527	H	0.864135	0.205905	0.704391
	C528	C	0.884528	0.273565	0.858925
	H529	H	0.877025	0.237026	0.844633
	C530	C	0.886936	0.297694	0.853313
	H531	H	0.883278	0.321882	0.823899
	H532	H	0.888752	0.269128	0.878018
	H533	H	0.867530	0.173468	0.671315
	C534	C	0.815096	0.192595	0.807938
	H535	H	0.821642	0.225735	0.829936
	C536	C	0.791033	0.181075	0.822558
	C537	C	0.767826	0.167052	0.810103
	C538	C	0.744538	0.156388	0.823563
	H539	H	0.768445	0.164781	0.789702
	C540	C	0.790580	0.183808	0.848973
	C541	C	0.743918	0.159433	0.849955
	H542	H	0.726753	0.145711	0.813678
	C543	C	0.767323	0.173170	0.862475
	H544	H	0.808783	0.194021	0.858846
	H545	H	0.767011	0.175268	0.882848
