data_Molecule from CHK

_cell_length_a		53.501972
_cell_length_b		52.562490
_cell_length_c		137.496166
_cell_angle_alpha	92.943153
_cell_angle_beta	80.674463
_cell_angle_gamma	120.442187
_symmetry_space_group_name_H-M	'P 1'
_symmetry_Int_Tables_number		1

loop_
	_symmetry_equiv_pos_as_xyz
	x,y,z

loop_
	_atom_site_label
	_atom_site_type_symbol
	_atom_site_fract_x
	_atom_site_fract_y
	_atom_site_fract_z
	C0	C	0.458142	-0.049990	0.123734
	C1	C	0.458718	-0.027859	0.117994
	C2	C	0.458231	-0.030887	0.107810
	H3	H	0.457378	-0.050181	0.104322
	C4	C	0.458797	-0.009137	0.102109
	C5	C	0.458272	-0.012365	0.091788
	C6	C	0.459862	0.015822	0.106687
	H7	H	0.460286	0.032646	0.102332
	C8	C	0.460347	0.019147	0.116864
	C9	C	0.461379	0.044494	0.121456
	C10	C	0.459772	-0.002784	0.122470
	H11	H	0.460121	-0.000352	0.130317
	C12	C	0.462154	0.066000	0.125358
	C13	C	0.462950	0.091210	0.129948
	C14	C	0.457753	-0.015103	0.083017
	C15	C	0.457063	-0.018287	0.072716
	C16	C	0.457640	-0.068723	0.128660
	C17	C	0.457047	-0.090632	0.134500
	C18	C	0.441267	0.098310	0.129142
	C19	C	0.442111	0.122971	0.133636
	H20	H	0.423941	0.084486	0.124922
	C21	C	0.464535	0.141160	0.139042
	H22	H	0.425663	0.128745	0.132951
	C23	C	0.486197	0.134237	0.139887
	C24	C	0.485515	0.109674	0.135362
	H25	H	0.504034	0.148760	0.143825
	H26	H	0.502392	0.104502	0.135985
	C27	C	0.481772	-0.094005	0.133748
	C28	C	0.481162	-0.115463	0.139447
	H29	H	0.501360	-0.079665	0.128654
	C30	C	0.455864	-0.134088	0.146049
	H31	H	0.500410	-0.117635	0.138933
	C32	C	0.431285	-0.130707	0.146886
	C33	C	0.431791	-0.109310	0.141191
	H34	H	0.411862	-0.145228	0.152028
	H35	H	0.412611	-0.106976	0.141853
	C36	C	0.430190	-0.034600	0.069135
	C37	C	0.429596	-0.037629	0.059062
	H38	H	0.409887	-0.045072	0.074307
	C39	C	0.455686	-0.024200	0.052298
	H40	H	0.408990	-0.050533	0.056267
	C41	C	0.482564	-0.008373	0.055810
	C42	C	0.483265	-0.005398	0.065883
	H43	H	0.502849	0.000853	0.050622
	H44	H	0.504079	0.006904	0.068563
	C45	C	0.464548	0.167406	0.143985
	O46	O	0.457206	0.182282	0.140119
	N47	N	0.470933	0.170953	0.153611
	H48	H	0.470283	0.153882	0.157065
	C49	C	0.454446	-0.157871	0.152169
	O50	O	0.441462	-0.164076	0.160562
	N51	N	0.466816	-0.173528	0.147001
	H52	H	0.471040	-0.171611	0.139495
	C53	C	0.454314	-0.028258	0.041434
	O54	O	0.436754	-0.051444	0.038308
	N55	N	0.474450	-0.003014	0.035529
	H56	H	0.483865	0.016849	0.038804
	C57	C	0.487679	0.743834	0.173561
	C58	C	0.479167	0.785865	0.164636
	C59	C	0.488035	0.767595	0.178853
	C60	C	0.478747	0.762065	0.159350
	C61	C	0.483859	0.788135	0.174491
	C62	C	0.482899	0.741500	0.163712
	H63	H	0.482484	0.723332	0.159503
	H64	H	0.484128	0.806243	0.178711
	H65	H	0.475048	0.759933	0.151757
	H66	H	0.491639	0.769705	0.186465
	N67	N	0.496627	0.724093	0.187105
	C68	C	0.492129	0.722048	0.178142
	H69	H	0.491424	0.704030	0.173562
	N70	N	0.471101	0.806332	0.151057
	C71	C	0.474929	0.807858	0.160080
	H72	H	0.475994	0.825792	0.164773
	C73	C	0.489287	-0.022419	-0.011115
	C74	C	0.480537	-0.023601	0.009836
	C75	C	0.481269	-0.048034	-0.005644
	C76	C	0.488556	0.002014	0.004363
	C77	C	0.476987	-0.048613	0.004600
	C78	C	0.492838	0.002603	-0.005882
	H79	H	0.498983	0.022571	-0.009948
	H80	H	0.470702	-0.068619	0.008680
	H81	H	0.491312	0.021464	0.008286
	H82	H	0.478403	-0.067550	-0.009562
	N83	N	0.490469	-0.044421	-0.026805
	C84	C	0.493727	-0.021706	-0.021960
	H85	H	0.499824	-0.000946	-0.025709
	N86	N	0.479309	-0.001752	0.025546
	C87	C	0.475933	-0.024469	0.020689
	H88	H	0.470183	-0.045295	0.024291
	C89	C	0.496249	0.294132	0.172893
	C90	C	0.488438	0.244967	0.161346
	C91	C	0.503262	0.296956	0.162552
	C92	C	0.481396	0.242140	0.171687
	C93	C	0.499431	0.272916	0.156906
	C94	C	0.485202	0.266174	0.177337
	H95	H	0.479607	0.263481	0.185294
	H96	H	0.504879	0.275542	0.148941
	H97	H	0.472803	0.220724	0.175224
	H98	H	0.511757	0.318355	0.159001
	N99	N	0.510362	0.345101	0.174922
	C100	C	0.500223	0.319502	0.178907
	H101	H	0.494077	0.315537	0.186931
	N102	N	0.474928	0.194179	0.159261
	C103	C	0.484531	0.219664	0.155292
	H104	H	0.490943	0.224155	0.147301
	C105	C	0.522525	0.591762	0.216282
	C106	C	0.526125	0.568713	0.219548
	C107	C	0.525715	0.547074	0.213041
	H108	H	0.522688	0.547990	0.205501
	C109	C	0.529221	0.524266	0.216220
	C110	C	0.528699	0.502371	0.209578
	C111	C	0.533181	0.523237	0.226010
	H112	H	0.535930	0.505735	0.228498
	C113	C	0.533639	0.544724	0.232602
	C114	C	0.537616	0.543535	0.242525
	C115	C	0.530092	0.567391	0.229318
	H116	H	0.530413	0.584003	0.234366
	C117	C	0.540919	0.542594	0.250975
	C118	C	0.544672	0.541539	0.260921
	C119	C	0.528119	0.483775	0.203899
	C120	C	0.527290	0.461944	0.197194
	C121	C	0.519469	0.611416	0.213560
	C122	C	0.515910	0.634588	0.210421
	C123	C	0.572566	0.558366	0.263785
	C124	C	0.576124	0.557290	0.273518
	H125	H	0.591375	0.572073	0.258318
	C126	C	0.552024	0.539453	0.280637
	H127	H	0.597605	0.569947	0.275748
	C128	C	0.524175	0.522632	0.277846
	C129	C	0.520548	0.523544	0.268110
	H130	H	0.505654	0.508157	0.283280
	H131	H	0.499016	0.510403	0.265975
	C132	C	0.492254	0.628359	0.205577
	C133	C	0.488853	0.651042	0.202482
	H134	H	0.476659	0.605615	0.204278
	C135	C	0.508963	0.680507	0.204154
	H136	H	0.470344	0.646082	0.198908
	C137	C	0.532377	0.686838	0.209044
	C138	C	0.535883	0.664232	0.212134
	H139	H	0.547717	0.709730	0.210311
	H140	H	0.554157	0.669362	0.215863
	C141	C	0.551321	0.468383	0.189757
	C142	C	0.550381	0.446994	0.183205
	H143	H	0.570524	0.490306	0.189100
	C144	C	0.525677	0.418577	0.183973
	H145	H	0.568605	0.451933	0.177354
	C146	C	0.501455	0.412137	0.191246
	C147	C	0.502248	0.433510	0.197785
	H148	H	0.481772	0.390632	0.191537
	H149	H	0.483489	0.428452	0.203395
	C150	C	0.556448	0.539170	0.291165
	O151	O	0.578299	0.540497	0.293188
	N152	N	0.534749	0.540140	0.298118
	H153	H	0.521056	0.545799	0.295754
	C154	C	0.506194	0.705532	0.200686
	O155	O	0.510771	0.726745	0.205665
	N156	N	0.500638	0.703472	0.190996
	H157	H	0.500466	0.686806	0.186856
	C158	C	0.525132	0.396051	0.176664
	O159	O	0.534378	0.402298	0.167954
	N160	N	0.513548	0.367768	0.180791
	H161	H	0.509197	0.364898	0.188259
	C162	C	0.510568	-0.044112	0.907040
	C163	C	0.514357	-0.039090	0.896689
	C164	C	0.538866	-0.013513	0.891997
	H165	H	0.554959	0.002376	0.896279
	C166	C	0.542693	-0.008352	0.881798
	C167	C	0.567556	0.017664	0.877091
	C168	C	0.521711	-0.029058	0.876289
	H169	H	0.524538	-0.025194	0.868429
	C170	C	0.497089	-0.054733	0.880880
	C171	C	0.475870	-0.075543	0.875238
	C172	C	0.493562	-0.059607	0.891083
	H173	H	0.474642	-0.079359	0.894662
	C174	C	0.457851	-0.092976	0.870386
	C175	C	0.436702	-0.113172	0.864625
	C176	C	0.588616	0.039833	0.873088
	C177	C	0.613273	0.065934	0.868382
	C178	C	0.507210	-0.048294	0.915850
	C179	C	0.503088	-0.053109	0.926213
	C180	C	0.444404	-0.127803	0.856911
	C181	C	0.423702	-0.147399	0.851262
	H182	H	0.466731	-0.123505	0.855345
	C183	C	0.394839	-0.152924	0.853151
	H184	H	0.429589	-0.158462	0.845234
	C185	C	0.386970	-0.138505	0.860833
	C186	C	0.407647	-0.118779	0.866468
	H187	H	0.364877	-0.142100	0.862123
	H188	H	0.401525	-0.107534	0.872355
	C189	C	0.485031	-0.045191	0.932656
	C190	C	0.481079	-0.049766	0.942792
	H191	H	0.474207	-0.035442	0.929623
	C192	C	0.495040	-0.062374	0.946753
	H193	H	0.466771	-0.044090	0.947695
	C194	C	0.512803	-0.070548	0.940387
	C195	C	0.516843	-0.065974	0.930248
	H196	H	0.523392	-0.080364	0.943553
	H197	H	0.530746	-0.072231	0.925386
	C198	C	0.642037	0.072118	0.868597
	C199	C	0.666073	0.097679	0.863999
	H200	H	0.645353	0.056867	0.872448
	C201	C	0.662086	0.117704	0.859072
	H202	H	0.688287	0.102740	0.864239
	C203	C	0.633518	0.111700	0.858816
	C204	C	0.609422	0.086231	0.863448
	H205	H	0.630384	0.127584	0.855267
	H206	H	0.587390	0.081768	0.863284
	C207	C	0.372791	-0.174564	0.846990
	O208	O	0.379554	-0.176385	0.838239
	N209	N	0.345263	-0.193717	0.852428
	H210	H	0.343418	-0.195344	0.859894
	C211	C	0.491649	-0.066925	0.957711
	O212	O	0.488874	-0.088965	0.961317
	N213	N	0.494652	-0.042648	0.963200
	H214	H	0.500579	-0.023548	0.959578
	C215	C	0.688584	0.144934	0.854015
	O216	O	0.710739	0.158702	0.857681
	N217	N	0.685247	0.152121	0.844833
	H218	H	0.668859	0.136292	0.841397
	C219	C	0.533709	0.512308	0.343198
	C220	C	0.538812	0.519067	0.322475
	C221	C	0.546448	0.499187	0.336591
	C222	C	0.526145	0.532254	0.329083
	C223	C	0.548951	0.502498	0.326459
	C224	C	0.523647	0.528958	0.339218
	H225	H	0.513808	0.539309	0.344173
	H226	H	0.558913	0.492263	0.321492
	H227	H	0.518316	0.545189	0.326132
	H228	H	0.554382	0.486313	0.339535
	N229	N	0.539999	0.493617	0.357627
	C230	C	0.530934	0.508807	0.353933
	H231	H	0.520793	0.519744	0.358623
	N232	N	0.531936	0.537020	0.308010
	C233	C	0.541411	0.522268	0.311728
	H234	H	0.551150	0.510737	0.307198
	C235	C	0.241392	0.732020	0.826947
	C236	C	0.291525	0.771740	0.835600
	C237	C	0.263330	0.758854	0.822098
	C238	C	0.269598	0.744890	0.840444
	C239	C	0.287848	0.778264	0.826326
	C240	C	0.245082	0.725453	0.836214
	H241	H	0.228468	0.704874	0.840073
	H242	H	0.304557	0.798792	0.822448
	H243	H	0.272147	0.739482	0.847583
	H244	H	0.260860	0.764256	0.814937
	N245	N	0.211880	0.717261	0.814052
	C246	C	0.215422	0.711375	0.822488
	H247	H	0.199309	0.690773	0.826680
	N248	N	0.320980	0.787135	0.848535
	C249	C	0.317553	0.792540	0.840015
	H250	H	0.333245	0.813022	0.835705
	C251	C	0.784051	0.280790	0.826385
	C252	C	0.742248	0.228186	0.837585
	C253	C	0.779687	0.280287	0.836752
	C254	C	0.746627	0.228690	0.827218
	C255	C	0.759259	0.254564	0.842228
	C256	C	0.767074	0.254405	0.821737
	H257	H	0.770103	0.254280	0.813756
	H258	H	0.756311	0.254618	0.850215
	H259	H	0.733758	0.208521	0.823524
	H260	H	0.792633	0.300432	0.840460
	N261	N	0.821199	0.332142	0.824718
	C262	C	0.805709	0.307938	0.820548
	H263	H	0.808069	0.306531	0.812488
	N264	N	0.704674	0.176998	0.839327
	C265	C	0.720630	0.201083	0.843463
	H266	H	0.718572	0.202987	0.851500
	C267	C	0.524133	0.470242	0.423068
	C268	C	0.518871	0.468484	0.433566
	C269	C	0.493648	0.467718	0.438784
	H270	H	0.478212	0.468530	0.434789
	C271	C	0.488201	0.465790	0.449136
	C272	C	0.462462	0.464793	0.454372
	C273	C	0.508273	0.464635	0.454270
	H274	H	0.504148	0.463063	0.462246
	C275	C	0.533591	0.465381	0.449152
	C276	C	0.553716	0.463975	0.454414
	C277	C	0.538749	0.467313	0.438800
	H278	H	0.558188	0.467828	0.434816
	C279	C	0.570507	0.462284	0.458916
	C280	C	0.589876	0.459727	0.464227
	C281	C	0.440326	0.463419	0.458817
	C282	C	0.414031	0.461178	0.464036
	C283	C	0.528385	0.471356	0.414142
	C284	C	0.533142	0.472276	0.403656
	C285	C	0.584534	0.431773	0.466991
	C286	C	0.603449	0.429287	0.472193
	H287	H	0.565379	0.412106	0.465092
	C288	C	0.628140	0.454544	0.474774
	H289	H	0.599268	0.407821	0.474437
	C290	C	0.633641	0.482463	0.472041
	C291	C	0.614694	0.485048	0.466876
	H292	H	0.652260	0.502036	0.474275
	H293	H	0.618932	0.506662	0.464825
	C294	C	0.546018	0.499259	0.398289
	C295	C	0.550488	0.500088	0.388036
	H296	H	0.552419	0.519455	0.402245
	C297	C	0.542238	0.474006	0.382886
	H298	H	0.560842	0.520961	0.383948
	C299	C	0.529692	0.447145	0.388174
	C300	C	0.525146	0.446217	0.398422
	H301	H	0.523501	0.427154	0.384091
	H302	H	0.515277	0.425310	0.402448
	C303	C	0.388915	0.433355	0.466680
	C304	C	0.363210	0.431166	0.471772
	H305	H	0.389679	0.413551	0.464650
	C306	C	0.361846	0.456593	0.474360
	H307	H	0.343698	0.409791	0.473730
	C308	C	0.386760	0.484387	0.471760
	C309	C	0.412483	0.486672	0.466625
	H310	H	0.385510	0.504089	0.473489
	H311	H	0.431636	0.508187	0.464584
	C312	C	0.648474	0.451054	0.480259
	O313	O	0.639230	0.431705	0.486554
	N314	N	0.678303	0.470040	0.476775
	H315	H	0.684071	0.480935	0.470141
	C316	C	0.546140	0.474147	0.371797
	O317	O	0.554443	0.458975	0.367051
	N318	N	0.536876	0.490983	0.367574
	H319	H	0.526980	0.500388	0.372064
	C320	C	0.333759	0.453332	0.480035
	O321	O	0.309976	0.434212	0.478247
	N322	N	0.337864	0.473694	0.487463
	H323	H	0.357780	0.484731	0.489788
	C324	C	0.057312	0.591403	0.784855
	C325	C	0.031723	0.568574	0.781402
	C326	C	0.009895	0.545230	0.787810
	H327	H	0.012558	0.544660	0.795416
	C328	C	-0.015362	0.522616	0.784444
	C329	C	-0.037328	0.498963	0.790983
	C330	C	-0.018680	0.523506	0.774565
	H331	H	-0.038109	0.506156	0.771932
	C332	C	0.002971	0.546709	0.768071
	C333	C	-0.000458	0.547437	0.758052
	C334	C	0.028111	0.569161	0.771542
	H335	H	0.044878	0.587087	0.766570
	C336	C	-0.003136	0.548099	0.749511
	C337	C	-0.006021	0.548890	0.739448
	C338	C	-0.055791	0.478818	0.796570
	C339	C	-0.077257	0.455098	0.803158
	C340	C	0.079176	0.610850	0.787720
	C341	C	0.104987	0.633752	0.791003
	C342	C	-0.014175	0.568050	0.736054
	C343	C	-0.016922	0.568764	0.726206
	H344	H	-0.018514	0.582164	0.741202
	C345	C	-0.011629	0.550438	0.719496
	H346	H	-0.023507	0.583242	0.723570
	C347	C	-0.003504	0.531294	0.722816
	C348	C	-0.000858	0.530420	0.732668
	H349	H	-0.000246	0.516472	0.717702
	H350	H	0.005298	0.515501	0.735210
	C351	C	0.124453	0.627351	0.794612
	C352	C	0.149671	0.649748	0.797829
	H353	H	0.119567	0.604701	0.794852
	C354	C	0.156105	0.679098	0.797519
	H355	H	0.164814	0.644753	0.800436
	C356	C	0.136975	0.685647	0.793867
	C357	C	0.111717	0.663316	0.790658
	H358	H	0.142272	0.708462	0.793645
	H359	H	0.096979	0.668583	0.787890
	C360	C	-0.095128	0.459563	0.810930
	C361	C	-0.116016	0.436322	0.817367
	H362	H	-0.092276	0.481396	0.811936
	C363	C	-0.119899	0.408001	0.816149
	H364	H	-0.129522	0.439698	0.823470
	C365	C	-0.101851	0.403478	0.808535
	C366	C	-0.080834	0.426695	0.802110
	H367	H	-0.103824	0.381934	0.807886
	H368	H	-0.066929	0.423113	0.796236
	C369	C	-0.014230	0.552089	0.708831
	O370	O	-0.032928	0.555960	0.706442
	N371	N	0.008290	0.551633	0.702175
	H372	H	0.026619	0.555255	0.704744
	C373	C	0.182947	0.703682	0.801134
	O374	O	0.197775	0.727596	0.796846
	N375	N	0.187630	0.697492	0.810224
	H376	H	0.172320	0.678314	0.813984
	C377	C	-0.142349	0.383397	0.823339
	O378	O	-0.145707	0.386976	0.832134
	N379	N	-0.159034	0.356533	0.819002
	H380	H	-0.157243	0.356007	0.811527
	C381	C	0.767886	0.472985	0.503436
	C382	C	0.721707	0.469282	0.494607
	C383	C	0.740341	0.464795	0.509058
	C384	C	0.749237	0.477428	0.488983
	C385	C	0.717770	0.463002	0.504743
	C386	C	0.771815	0.479243	0.493299
	H387	H	0.792832	0.485398	0.488830
	H388	H	0.696640	0.456494	0.509190
	H389	H	0.752624	0.482198	0.481149
	H390	H	0.736854	0.459726	0.516872
	N391	N	0.788582	0.469076	0.517137
	C392	C	0.791919	0.474823	0.507915
	H393	H	0.812712	0.481894	0.502950
	N394	N	0.700839	0.472744	0.480882
	C395	C	0.697582	0.467175	0.490114
	H396	H	0.677150	0.461191	0.495155
	C397	C	0.222151	0.476557	0.507516
	C398	C	0.268976	0.472759	0.495804
	C399	C	0.220575	0.467615	0.497713
	C400	C	0.270545	0.481682	0.505610
	C401	C	0.243476	0.465779	0.491984
	C402	C	0.247657	0.483550	0.511335
	H403	H	0.249201	0.490307	0.518898
	H404	H	0.241780	0.458675	0.484459
	H405	H	0.289974	0.487014	0.508694
	H406	H	0.201021	0.461990	0.494660
	N407	N	0.174511	0.471874	0.510294
	C408	C	0.197937	0.478383	0.513675
	H409	H	0.201470	0.486083	0.521164
	N410	N	0.316271	0.476597	0.493087
	C411	C	0.293000	0.470534	0.489681
	H412	H	0.289959	0.463999	0.482064
	C413	C	-0.012038	0.530153	0.656983
	C414	C	-0.013353	0.535031	0.677713
	C415	C	-0.038787	0.518710	0.663482
	C416	C	0.013400	0.546597	0.671210
	C417	C	-0.039431	0.521097	0.673618
	C418	C	0.014055	0.544217	0.661072
	H419	H	0.034918	0.553269	0.656200
	H420	H	-0.060286	0.512175	0.678499
	H421	H	0.033708	0.557520	0.674244
	H422	H	-0.059126	0.507870	0.660451
	N423	N	-0.034896	0.514578	0.642451
	C424	C	-0.011222	0.527484	0.646250
	H425	H	0.010493	0.536947	0.641654
	N426	N	0.009319	0.549515	0.692287
	C427	C	-0.014298	0.537182	0.688469
	H428	H	-0.036228	0.526978	0.692924
	C429	C	-0.064298	0.482571	0.544795
	C430	C	-0.043768	0.484611	0.550660
	C431	C	-0.048424	0.487528	0.560903
	H432	H	-0.067676	0.488340	0.564338
	C433	C	-0.028391	0.489279	0.566736
	C434	C	-0.033358	0.491964	0.577129
	C435	C	-0.003515	0.488095	0.562232
	H436	H	0.011949	0.489346	0.566695
	C437	C	0.001430	0.485182	0.551999
	C438	C	0.026562	0.483704	0.547508
	C439	C	-0.018789	0.483460	0.546260
	H440	H	-0.015134	0.481141	0.538374
	C441	C	0.047641	0.481838	0.543769
	C442	C	0.072037	0.478910	0.539463
	C443	C	-0.037688	0.493687	0.585991
	C444	C	-0.042873	0.495069	0.596426
	C445	C	-0.081918	0.480270	0.539783
	C446	C	-0.102814	0.476913	0.533871
	C447	C	0.075052	0.455538	0.542478
	C448	C	0.098850	0.452624	0.538255
	H449	H	0.058717	0.439851	0.548181
	C450	C	0.120235	0.472885	0.530930
	H451	H	0.101445	0.434839	0.540617
	C452	C	0.117406	0.496220	0.527882
	C453	C	0.093701	0.499297	0.532124
	H454	H	0.134365	0.512392	0.522418
	H455	H	0.091673	0.517445	0.529785
	C456	C	-0.112289	0.497550	0.534095
	C457	C	-0.132889	0.494072	0.528358
	H458	H	-0.103383	0.516216	0.538820
	C459	C	-0.144520	0.469926	0.522243
	H460	H	-0.139790	0.510237	0.528469
	C461	C	-0.134994	0.449479	0.521919
	C462	C	-0.114445	0.452851	0.527653
	H463	H	-0.144142	0.430908	0.517153
	H464	H	-0.107370	0.436801	0.527401
	C465	C	-0.064461	0.469934	0.602242
	C466	C	-0.069407	0.471260	0.612444
	H467	H	-0.077393	0.449495	0.598699
	C468	C	-0.052998	0.497612	0.617107
	H469	H	-0.086225	0.452085	0.616965
	C470	C	-0.031499	0.522760	0.611373
	C471	C	-0.026583	0.521563	0.601160
	H472	H	-0.019475	0.543398	0.614950
	H473	H	-0.010068	0.541079	0.596747
	C474	C	0.145389	0.468682	0.526353
	O475	O	0.156843	0.460114	0.531221
	N476	N	0.151997	0.472800	0.516078
	H477	H	0.137387	0.473800	0.512417
	C478	C	-0.167408	0.465167	0.516137
	O479	O	-0.167504	0.455577	0.507925
	N480	N	-0.189459	0.470077	0.521146
	H481	H	-0.191146	0.471867	0.528610
	C482	C	-0.058426	0.497996	0.628186
	O483	O	-0.082998	0.486299	0.632888
	N484	N	-0.032957	0.512432	0.632514
	H485	H	-0.013206	0.519200	0.628187
