data_Molecule from CHK

_cell_length_a		53.556885
_cell_length_b		53.592127
_cell_length_c		53.547659
_cell_angle_alpha	89.847998
_cell_angle_beta	89.859546
_cell_angle_gamma	89.875667
_symmetry_space_group_name_H-M	'P 1'
_symmetry_Int_Tables_number		1

loop_
	_symmetry_equiv_pos_as_xyz
	x,y,z

loop_
	_atom_site_label
	_atom_site_type_symbol
	_atom_site_fract_x
	_atom_site_fract_y
	_atom_site_fract_z
	C0	C	0.164245	0.284783	0.149051
	C1	C	0.173645	0.263852	0.136340
	C2	C	0.183154	0.243431	0.149312
	C3	C	0.183617	0.243349	0.175505
	C4	C	0.174511	0.264264	0.188356
	C5	C	0.164944	0.284621	0.175288
	C6	C	0.193197	0.221146	0.189333
	N7	N	0.180572	0.213520	0.209625
	C8	C	0.189380	0.193077	0.221149
	N9	N	0.209685	0.180486	0.213542
	C10	C	0.221237	0.189325	0.193110
	N11	N	0.213644	0.209628	0.180513
	C12	C	0.175527	0.183465	0.243340
	C13	C	0.188354	0.174359	0.264289
	C14	C	0.175268	0.164770	0.284640
	C15	C	0.149037	0.164045	0.284763
	C16	C	0.136349	0.173442	0.263796
	C17	C	0.149338	0.182974	0.243380
	C18	C	0.243441	0.175501	0.183519
	C19	C	0.243480	0.149331	0.183011
	C20	C	0.263907	0.136365	0.173504
	C21	C	0.284888	0.149057	0.164149
	C22	C	0.284766	0.175271	0.164888
	C23	C	0.264403	0.188335	0.174453
	H24	H	0.190330	0.227219	0.139622
	H25	H	0.173340	0.263556	0.116100
	H26	H	0.157789	0.300561	0.185491
	H27	H	0.174916	0.263922	0.208563
	H28	H	0.208557	0.174784	0.263978
	H29	H	0.185454	0.157616	0.300606
	H30	H	0.116113	0.173115	0.263470
	H31	H	0.139666	0.190148	0.227143
	H32	H	0.227231	0.139655	0.190154
	H33	H	0.263578	0.116142	0.173165
	H34	H	0.300744	0.185459	0.157765
	H35	H	0.264093	0.208523	0.174888
	C36	C	0.148321	0.100158	0.399583
	C37	C	0.125795	0.092154	0.409917
	C38	C	0.103185	0.097687	0.398005
	C39	C	0.102971	0.111629	0.375080
	C40	C	0.126527	0.119475	0.364940
	C41	C	0.148824	0.113661	0.377300
	H42	H	0.125429	0.081601	0.427180
	H43	H	0.166334	0.119795	0.369249
	C44	C	0.079915	0.117576	0.362706
	C45	C	0.056354	0.109831	0.372889
	C46	C	0.034030	0.115896	0.360689
	C47	C	0.034514	0.129523	0.338485
	C48	C	0.057059	0.137272	0.328002
	C49	C	0.079686	0.131496	0.339775
	H50	H	0.016522	0.109803	0.368777
	H51	H	0.057426	0.147788	0.310717
	C52	C	0.125361	0.132927	0.342006
	C53	C	0.103509	0.138473	0.330248
	C54	C	0.079400	0.090049	0.407131
	C55	C	0.057557	0.095765	0.395440
	H56	H	0.165691	0.095767	0.408972
	H57	H	0.017129	0.134096	0.329211
	B58	B	0.134442	0.152716	0.306898
	O59	O	0.145107	0.141812	0.328014
	O60	O	0.108493	0.151043	0.308312
	B61	B	0.048629	0.072689	0.428514
	O62	O	0.037890	0.085444	0.408481
	O63	O	0.074481	0.075821	0.428061
	C64	C	0.399861	0.148358	0.100528
	C65	C	0.410201	0.125849	0.092543
	C66	C	0.398259	0.103254	0.098037
	C67	C	0.375299	0.103040	0.111922
	C68	C	0.365153	0.126579	0.119749
	C69	C	0.377542	0.148861	0.113971
	H70	H	0.427494	0.125482	0.082038
	H71	H	0.369486	0.166358	0.120089
	C72	C	0.362902	0.079999	0.117840
	C73	C	0.373096	0.056454	0.110122
	C74	C	0.360880	0.034145	0.116172
	C75	C	0.338649	0.034626	0.129756
	C76	C	0.328154	0.057155	0.137475
	C77	C	0.339943	0.079768	0.131714
	H78	H	0.368979	0.016649	0.110105
	H79	H	0.310848	0.057521	0.147956
	C80	C	0.342186	0.125413	0.133143
	C81	C	0.330408	0.103574	0.138663
	C82	C	0.407391	0.079487	0.090414
	C83	C	0.395675	0.057658	0.096101
	H84	H	0.409274	0.165716	0.096168
	H85	H	0.329365	0.017251	0.134321
	B86	B	0.307038	0.134482	0.152855
	O87	O	0.328180	0.145144	0.141995
	O88	O	0.308446	0.108551	0.151183
	B89	B	0.428798	0.048740	0.073096
	O90	O	0.408729	0.038008	0.085804
	O91	O	0.428350	0.074573	0.076232
	C92	C	0.100383	0.399515	0.148418
	C93	C	0.092391	0.409864	0.125895
	C94	C	0.097936	0.397987	0.103271
	C95	C	0.111880	0.375084	0.103041
	C96	C	0.119711	0.364926	0.126595
	C97	C	0.113884	0.377250	0.148905
	H98	H	0.081839	0.427113	0.125540
	H99	H	0.120008	0.369186	0.166413
	C100	C	0.117850	0.362753	0.079971
	C101	C	0.110129	0.372960	0.056411
	C102	C	0.116228	0.360808	0.034074
	C103	C	0.129866	0.338629	0.034543
	C104	C	0.137591	0.328123	0.057085
	C105	C	0.131780	0.339848	0.079726
	H106	H	0.110156	0.368913	0.016567
	H107	H	0.148114	0.310857	0.057441
	C108	C	0.133161	0.342013	0.125413
	C109	C	0.138729	0.330295	0.103548
	C110	C	0.090311	0.407132	0.079488
	C111	C	0.096049	0.395481	0.057631
	H112	H	0.095984	0.408877	0.165798
	H113	H	0.134469	0.329394	0.017147
	B114	B	0.152936	0.306922	0.134471
	O115	O	0.142023	0.328006	0.145154
	O116	O	0.151292	0.308371	0.108518
	B117	B	0.072955	0.428524	0.048727
	O118	O	0.085732	0.408531	0.037971
	O119	O	0.076073	0.428039	0.074585
	C120	C	-0.008124	0.007591	0.499108
	C121	C	0.034164	0.056631	0.447538
	C122	C	0.040230	-0.034481	0.551462
	C123	C	-0.048134	-0.040340	0.445204
	C124	C	-0.057119	0.047876	0.552227
	C125	C	0.046460	0.043385	0.466509
	C126	C	0.027542	-0.046841	0.532258
	C127	C	-0.061249	-0.027809	0.464109
	C128	C	-0.044083	0.060896	0.533571
	C129	C	0.033421	0.028126	0.483172
	C130	C	0.012392	-0.033908	0.515423
	C131	C	-0.048986	-0.012806	0.481459
	C132	C	-0.028856	0.048519	0.516380
	C133	C	0.007409	0.025551	0.481798
	C134	C	0.009344	-0.007956	0.516898
	C135	C	-0.022983	-0.009811	0.480850
	C136	C	-0.026100	0.022494	0.516915
	C137	C	-0.004846	0.038804	0.462761
	C138	C	0.021971	0.004343	0.536223
	C139	C	-0.009935	-0.022252	0.461801
	C140	C	-0.039174	0.009518	0.535616
	C141	C	0.008165	0.053984	0.446061
	C142	C	0.037054	-0.008553	0.553064
	C143	C	-0.022158	-0.037168	0.444446
	C144	C	-0.054318	0.021858	0.552820
	H145	H	0.066593	0.044739	0.468106
	H146	H	0.029319	-0.066927	0.530560
	H147	H	-0.081391	-0.029581	0.465147
	H148	H	-0.045576	0.081060	0.532650
	H149	H	0.043851	0.017607	0.496905
	H150	H	0.002354	-0.044360	0.501437
	H151	H	-0.059967	-0.002865	0.495194
	H152	H	-0.018492	0.059437	0.502893
	H153	H	-0.024870	0.036624	0.460843
	H154	H	0.019439	0.024318	0.538200
	H155	H	0.010102	-0.019721	0.460460
	H156	H	-0.036870	-0.010549	0.536878
	H157	H	-0.002047	0.063738	0.431539
	H158	H	0.046364	0.001711	0.567758
	H159	H	-0.011311	-0.046347	0.430006
	H160	H	-0.063911	0.011082	0.567058
	C161	C	0.499208	-0.007899	0.007745
	C162	C	0.447855	0.034286	0.057078
	C163	C	0.551267	0.040716	-0.034418
	C164	C	0.445503	-0.047870	-0.040461
	C165	C	0.552154	-0.057222	0.047882
	C166	C	0.466775	0.046591	0.043761
	C167	C	0.532130	0.027921	-0.046774
	C168	C	0.464419	-0.060965	-0.027923
	C169	C	0.533557	-0.044178	0.060962
	C170	C	0.483382	0.033582	0.028429
	C171	C	0.515440	0.012619	-0.033826
	C172	C	0.481707	-0.048713	-0.012834
	C173	C	0.516492	-0.028762	0.048646
	C174	C	0.481939	0.007600	0.025765
	C175	C	0.516943	0.009590	-0.007851
	C176	C	0.480925	-0.022760	-0.009631
	C177	C	0.517071	-0.025846	0.022617
	C178	C	0.462811	-0.004635	0.038912
	C179	C	0.536350	0.022129	0.004408
	C180	C	0.461773	-0.009752	-0.021958
	C181	C	0.535821	-0.038791	0.009599
	C182	C	0.446261	0.008328	0.054283
	C183	C	0.553019	0.037399	-0.008495
	C184	C	0.444573	-0.021944	-0.037080
	C185	C	0.552872	-0.054160	0.021873
	H186	H	0.468413	0.066704	0.045166
	H187	H	0.530321	0.029801	-0.066858
	H188	H	0.465556	-0.081077	-0.029812
	H189	H	0.532530	-0.045886	0.081122
	H190	H	0.497121	0.044015	0.017917
	H191	H	0.501269	0.002795	-0.044231
	H192	H	0.495504	-0.059675	-0.002959
	H193	H	0.502806	-0.018696	0.059582
	H194	H	0.460972	-0.024664	0.036834
	H195	H	0.538254	0.019738	0.024426
	H196	H	0.460477	0.010283	-0.019498
	H197	H	0.536980	-0.036542	-0.010497
	H198	H	0.431718	-0.001879	0.064013
	H199	H	0.567725	0.046710	0.001754
	H200	H	0.430081	-0.011124	-0.046205
	H201	H	0.567112	-0.063695	0.011059
	C202	C	0.007776	0.499085	-0.007920
	C203	C	0.056884	0.447540	0.034281
	C204	C	-0.034352	0.551233	0.040574
	C205	C	-0.040153	0.445235	-0.047991
	C206	C	0.047965	0.552145	-0.057091
	C207	C	0.043611	0.466455	0.046611
	C208	C	-0.046731	0.532167	0.027709
	C209	C	-0.027580	0.464124	-0.061093
	C210	C	0.061040	0.533614	-0.043952
	C211	C	0.028334	0.483111	0.033599
	C212	C	-0.033777	0.515381	0.012536
	C213	C	-0.012576	0.481455	-0.048809
	C214	C	0.048695	0.516439	-0.028675
	C215	C	0.025768	0.481785	0.007579
	C216	C	-0.007789	0.516794	0.009606
	C217	C	-0.009624	0.480844	-0.022797
	C218	C	0.022655	0.516928	-0.025890
	C219	C	0.039050	0.462805	-0.004711
	C220	C	0.004489	0.536166	0.022169
	C221	C	-0.022105	0.461810	-0.009762
	C222	C	0.009646	0.535648	-0.038883
	C223	C	0.054247	0.446112	0.008276
	C224	C	-0.008410	0.552880	0.037378
	C225	C	-0.037021	0.444472	-0.022006
	C226	C	0.021941	0.552753	-0.054183
	H227	H	0.044956	0.468012	0.066751
	H228	H	-0.066841	0.530508	0.029410
	H229	H	-0.029319	0.465163	-0.081241
	H230	H	0.081219	0.532738	-0.045457
	H231	H	0.017791	0.496796	0.044054
	H232	H	-0.044232	0.501461	0.002416
	H233	H	-0.002599	0.495178	-0.059779
	H234	H	0.059646	0.502998	-0.018298
	H235	H	0.036874	0.460925	-0.024741
	H236	H	0.024517	0.538000	0.019850
	H237	H	-0.019604	0.460468	0.010283
	H238	H	-0.010460	0.536731	-0.036734
	H239	H	0.064019	0.431633	-0.001963
	H240	H	0.001860	0.567518	0.046762
	H241	H	-0.046231	0.430044	-0.011170
	H242	H	0.011127	0.566927	-0.063813
	C243	C	0.088010	0.852776	0.599309
	C244	C	0.102085	0.852831	0.621176
	C245	C	0.107356	0.875348	0.633271
	C246	C	0.098345	0.898559	0.623277
	C247	C	0.083858	0.897779	0.600768
	C248	C	0.078903	0.874955	0.589120
	H249	H	0.109092	0.835589	0.629102
	H250	H	0.067928	0.874881	0.572169
	C251	C	0.103690	0.921841	0.635395
	C252	C	0.118163	0.922657	0.657889
	C253	C	0.123324	0.945498	0.669432
	C254	C	0.114411	0.967700	0.659137
	C255	C	0.100232	0.967616	0.637345
	C256	C	0.094769	0.945060	0.625391
	H257	H	0.134286	0.945563	0.686390
	H258	H	0.093253	0.984854	0.629385
	C259	C	0.075151	0.921247	0.591742
	C260	C	0.080278	0.943290	0.603230
	C261	C	0.121391	0.877082	0.655752
	C262	C	0.126376	0.899160	0.667235
	H263	H	0.084051	0.835236	0.590124
	H264	H	0.118518	0.985257	0.668222
	B265	B	0.056529	0.951397	0.570513
	O266	O	0.060453	0.925658	0.571065
	O267	O	0.069088	0.962563	0.590342
	B268	B	0.142725	0.868935	0.690108
	O269	O	0.139841	0.894773	0.688696
	O270	O	0.131558	0.857761	0.669485
	C271	C	0.959378	0.886707	0.337046
	C272	C	0.937750	0.877479	0.326013
	C273	C	0.914376	0.882163	0.336862
	C274	C	0.912415	0.896470	0.359390
	C275	C	0.935071	0.905710	0.370170
	C276	C	0.958185	0.900721	0.358906
	H277	H	0.938674	0.866630	0.309009
	H278	H	0.974977	0.907936	0.367449
	C279	C	0.888574	0.901356	0.370780
	C280	C	0.865929	0.892003	0.360010
	C281	C	0.842855	0.896852	0.371390
	C282	C	0.841692	0.910832	0.393285
	C283	C	0.863295	0.920249	0.404221
	C284	C	0.886657	0.915719	0.393307
	H285	H	0.826056	0.889596	0.362895
	H286	H	0.862358	0.931137	0.421200
	C287	C	0.932181	0.919983	0.392360
	C288	C	0.909611	0.924720	0.403148
	C289	C	0.891414	0.873548	0.326774
	C290	C	0.868804	0.878056	0.337577
	H291	H	0.977355	0.882970	0.328495
	H292	H	0.823728	0.914462	0.401911
	B293	B	0.938634	0.943493	0.425536
	O294	O	0.950764	0.931279	0.405970
	O295	O	0.912982	0.939293	0.424077
	B296	B	0.862452	0.856398	0.303106
	O297	O	0.850242	0.867428	0.323297
	O298	O	0.888148	0.859970	0.305231
	C299	C	0.871027	0.042087	0.661665
	C300	C	0.884466	0.042904	0.639355
	C301	C	0.890136	0.065886	0.628196
	C302	C	0.882181	0.088794	0.639554
	C303	C	0.868458	0.087220	0.662551
	C304	C	0.863075	0.063964	0.673274
	H305	H	0.890715	0.025914	0.630385
	H306	H	0.852699	0.063327	0.690639
	C307	C	0.887727	0.112509	0.628254
	C308	C	0.901476	0.114049	0.605250
	C309	C	0.906610	0.137295	0.594400
	C310	C	0.898400	0.159157	0.605872
	C311	C	0.885076	0.158364	0.628259
	C312	C	0.879651	0.135411	0.639582
	H313	H	0.917018	0.137939	0.577054
	H314	H	0.878780	0.175360	0.637185
	C315	C	0.861221	0.110422	0.673248
	C316	C	0.866374	0.132911	0.662525
	C317	C	0.903980	0.068399	0.605615
	C318	C	0.909334	0.090855	0.594922
	H319	H	0.866757	0.024206	0.670129
	H320	H	0.902486	0.177028	0.597293
	B321	B	0.846519	0.139881	0.698071
	O322	O	0.848666	0.114082	0.695431
	O323	O	0.857223	0.151776	0.677487
	B324	B	0.926853	0.061374	0.571960
	O325	O	0.923434	0.087129	0.573652
	O326	O	0.914398	0.049531	0.591582
	C327	C	0.599002	0.088531	0.852701
	C328	C	0.620874	0.102590	0.852739
	C329	C	0.632993	0.107840	0.875266
	C330	C	0.623018	0.098824	0.898504
	C331	C	0.600504	0.084353	0.897740
	C332	C	0.588832	0.079418	0.874905
	H333	H	0.628784	0.109601	0.835477
	H334	H	0.571879	0.068454	0.874843
	C335	C	0.635160	0.104148	0.921795
	C336	C	0.657660	0.118605	0.922596
	C337	C	0.669225	0.123746	0.945449
	C338	C	0.658950	0.114826	0.967675
	C339	C	0.637156	0.100660	0.967606
	C340	C	0.625177	0.095220	0.945039
	H341	H	0.686185	0.134698	0.945502
	H342	H	0.629213	0.093674	0.984863
	C343	C	0.591498	0.075639	0.921233
	C344	C	0.603011	0.080745	0.943284
	C345	C	0.655484	0.121853	0.876985
	C346	C	0.666988	0.126819	0.899073
	H347	H	0.589799	0.084589	0.835153
	H348	H	0.668054	0.118915	0.985240
	B349	B	0.570298	0.057013	0.951425
	O350	O	0.570821	0.060953	0.925665
	O351	O	0.590141	0.069553	0.962583
	B352	B	0.689856	0.143140	0.868806
	O353	O	0.688456	0.140258	0.894668
	O354	O	0.669211	0.132008	0.857638
	C355	C	0.337024	0.959503	0.886997
	C356	C	0.326017	0.937883	0.877753
	C357	C	0.336949	0.914545	0.882343
	C358	C	0.359538	0.912613	0.896567
	C359	C	0.370292	0.935261	0.905825
	C360	C	0.358942	0.958338	0.900933
	H361	H	0.308970	0.938784	0.866963
	H362	H	0.367465	0.975125	0.908162
	C363	C	0.371016	0.888810	0.901352
	C364	C	0.360271	0.866172	0.891980
	C365	C	0.371738	0.843136	0.896728
	C366	C	0.393693	0.842002	0.910626
	C367	C	0.404606	0.863599	0.920060
	C368	C	0.393607	0.886923	0.915628
	H369	H	0.363263	0.826343	0.889459
	H370	H	0.421630	0.862684	0.930886
	C371	C	0.392548	0.932402	0.920011
	C372	C	0.403421	0.909868	0.924650
	C373	C	0.326890	0.891591	0.873710
	C374	C	0.337772	0.869016	0.878124
	H375	H	0.328409	0.977453	0.883333
	H376	H	0.402385	0.824067	0.914180
	B377	B	0.425805	0.938889	0.943412
	O378	O	0.406151	0.950984	0.931304
	O379	O	0.424403	0.913261	0.939151
	B380	B	0.303230	0.862628	0.856576
	O381	O	0.323498	0.850454	0.867502
	O382	O	0.305301	0.888303	0.860203
	C383	C	0.605767	0.897847	0.159102
	C384	C	0.628171	0.884578	0.158269
	C385	C	0.639517	0.879292	0.135283
	C386	C	0.628193	0.887454	0.112388
	C387	C	0.605170	0.901143	0.113970
	C388	C	0.594298	0.906138	0.137248
	H389	H	0.637095	0.878220	0.175259
	H390	H	0.576938	0.916503	0.137924
	C391	C	0.639514	0.882048	0.088638
	C392	C	0.662529	0.868384	0.087023
	C393	C	0.673273	0.863135	0.063733
	C394	C	0.661668	0.871169	0.041863
	C395	C	0.639342	0.884557	0.042721
	C396	C	0.628162	0.890091	0.065737
	H397	H	0.690650	0.852801	0.063063
	H398	H	0.630376	0.890871	0.025736
	C399	C	0.594848	0.909093	0.090783
	C400	C	0.605563	0.903875	0.068294
	C401	C	0.662482	0.866083	0.132743
	C402	C	0.673225	0.861063	0.110221
	H403	H	0.597171	0.901826	0.176999
	H404	H	0.670148	0.867003	0.023955
	B405	B	0.571888	0.926715	0.061338
	O406	O	0.573563	0.923165	0.087099
	O407	O	0.591531	0.914359	0.049446
	B408	B	0.698063	0.846296	0.139662
	O409	O	0.695429	0.848552	0.113848
	O410	O	0.677452	0.856888	0.151596
	C411	C	0.852739	0.599202	0.087956
	C412	C	0.852785	0.621034	0.102056
	C413	C	0.875320	0.633081	0.107413
	C414	C	0.898560	0.623074	0.098466
	C415	C	0.897788	0.600601	0.083952
	C416	C	0.874945	0.589001	0.078910
	H417	H	0.835522	0.628968	0.109017
	H418	H	0.874877	0.572077	0.067916
	C419	C	0.921860	0.635146	0.103896
	C420	C	0.922667	0.657607	0.118391
	C421	C	0.945527	0.669106	0.123631
	C422	C	0.967754	0.658801	0.114775
	C423	C	0.967679	0.637041	0.100577
	C424	C	0.945106	0.625129	0.095037
	H425	H	0.945585	0.686038	0.134610
	H426	H	0.984937	0.629074	0.093642
	C427	C	0.921286	0.591558	0.075315
	C428	C	0.943345	0.603001	0.080524
	C429	C	0.877048	0.655525	0.121476
	C430	C	0.899144	0.666966	0.126540
	H431	H	0.835183	0.590055	0.083931
	H432	H	0.985324	0.667853	0.118941
	B433	B	0.951486	0.570307	0.056797
	O434	O	0.925716	0.570899	0.060623
	O435	O	0.962649	0.590101	0.069397
	B436	B	0.868881	0.689845	0.142809
	O437	O	0.894744	0.688402	0.140009
	O438	O	0.857704	0.669260	0.131595
	C439	C	0.886725	0.337201	0.959400
	C440	C	0.877523	0.326187	0.937753
	C441	C	0.882274	0.337025	0.914382
	C442	C	0.896621	0.359524	0.912445
	C443	C	0.905830	0.370288	0.935121
	C444	C	0.900776	0.359034	0.958231
	H445	H	0.866645	0.309206	0.938658
	H446	H	0.907971	0.367562	0.975038
	C447	C	0.901575	0.370902	0.888607
	C448	C	0.892256	0.360145	0.865940
	C449	C	0.897176	0.371511	0.842870
	C450	C	0.911195	0.393377	0.841730
	C451	C	0.920581	0.404299	0.863354
	C452	C	0.915979	0.393399	0.886713
	H453	H	0.889944	0.363029	0.826056
	H454	H	0.931500	0.421255	0.862434
	C455	C	0.920141	0.392452	0.932255
	C456	C	0.924942	0.403229	0.909688
	C457	C	0.873691	0.326952	0.891402
	C458	C	0.878266	0.337740	0.868793
	H459	H	0.882937	0.328658	0.977374
	H460	H	0.914882	0.401991	0.823768
	B461	B	0.943681	0.425590	0.938749
	O462	O	0.931416	0.406045	0.950861
	O463	O	0.939534	0.424134	0.913085
	B464	B	0.856568	0.303311	0.862411
	O465	O	0.867655	0.323476	0.850212
	O466	O	0.860086	0.305437	0.888117
	C467	C	0.159241	0.606124	0.898587
	C468	C	0.158412	0.628500	0.885273
	C469	C	0.135425	0.639759	0.879840
	C470	C	0.112525	0.628374	0.887896
	C471	C	0.114102	0.605381	0.901633
	C472	C	0.137382	0.594597	0.906775
	H473	H	0.175405	0.637469	0.878994
	H474	H	0.138054	0.577257	0.917173
	C475	C	0.088775	0.639611	0.882348
	C476	C	0.087165	0.662599	0.868643
	C477	C	0.063877	0.673265	0.863263
	C478	C	0.042004	0.661607	0.871202
	C479	C	0.042855	0.639302	0.884623
	C480	C	0.065870	0.628200	0.890289
	H481	H	0.063212	0.690626	0.852901
	H482	H	0.025867	0.630294	0.890861
	C483	C	0.090908	0.594993	0.909468
	C484	C	0.068420	0.605625	0.904113
	C485	C	0.132887	0.662686	0.866571
	C486	C	0.110366	0.673349	0.861417
	H487	H	0.177139	0.597597	0.902681
	H488	H	0.024097	0.670028	0.866935
	B489	B	0.061442	0.571940	0.926935
	O490	O	0.087214	0.573708	0.923538
	O491	O	0.049561	0.591537	0.914500
	B492	B	0.139804	0.698230	0.846726
	O493	O	0.113992	0.695531	0.848870
	O494	O	0.151741	0.677686	0.857429
	C495	C	0.152915	0.720996	0.834918
	C496	C	0.179068	0.722552	0.833409
	C497	C	0.190679	0.743445	0.823173
	C498	C	0.176402	0.763515	0.814195
	C499	C	0.150283	0.762065	0.815546
	C500	C	0.138777	0.741121	0.825711
	C501	C	0.188570	0.786222	0.803652
	N502	N	0.178405	0.796644	0.783240
	C503	C	0.189415	0.817428	0.774666
	N504	N	0.209598	0.827718	0.785207
	C505	C	0.218609	0.816181	0.805561
	N506	N	0.208707	0.795353	0.815333
	C507	C	0.178150	0.830293	0.752680
	C508	C	0.176233	0.856401	0.752269
	C509	C	0.165182	0.868549	0.732144
	C510	C	0.155617	0.855083	0.711832
	C511	C	0.157754	0.828943	0.712306
	C512	C	0.168876	0.816690	0.732381
	C513	C	0.240460	0.827668	0.818292
	C514	C	0.241451	0.853617	0.821499
	C515	C	0.261594	0.864553	0.833560
	C516	C	0.281349	0.849997	0.842896
	C517	C	0.280241	0.824016	0.839584
	C518	C	0.260144	0.812975	0.827435
	H519	H	0.210806	0.744844	0.822101
	H520	H	0.190351	0.707262	0.840425
	H521	H	0.118570	0.740362	0.826653
	H522	H	0.139475	0.777639	0.808488
	H523	H	0.183538	0.866695	0.767989
	H524	H	0.163800	0.888734	0.732191
	H525	H	0.150506	0.818172	0.696836
	H526	H	0.170411	0.796556	0.732975
	H527	H	0.226190	0.864760	0.814311
	H528	H	0.262021	0.884639	0.835866
	H529	H	0.295264	0.812423	0.846661
	H530	H	0.259092	0.792979	0.824917
	C531	C	0.855009	0.711563	0.155662
	C532	C	0.828846	0.712060	0.157721
	C533	C	0.816577	0.732125	0.168813
	C534	C	0.830187	0.752391	0.178133
	C535	C	0.856317	0.751960	0.176288
	C536	C	0.868482	0.731844	0.165268
	C537	C	0.817307	0.774365	0.189372
	N538	N	0.827587	0.784916	0.209555
	C539	C	0.816038	0.805256	0.218542
	N540	N	0.795204	0.815002	0.208618
	C541	C	0.786082	0.803311	0.188485
	N542	N	0.796518	0.782915	0.178341
	C543	C	0.827517	0.818007	0.240386
	C544	C	0.812792	0.827250	0.260006
	C545	C	0.823826	0.839430	0.280088
	C546	C	0.849831	0.842674	0.281247
	C547	C	0.864419	0.833234	0.261559
	C548	C	0.853490	0.821143	0.241431
	C549	C	0.763368	0.813828	0.176297
	C550	C	0.743226	0.822682	0.190562
	C551	C	0.722326	0.832895	0.178937
	C552	C	0.720835	0.834504	0.152782
	C553	C	0.741034	0.825419	0.138656
	C554	C	0.761986	0.815277	0.150175
	H555	H	0.796426	0.732736	0.170290
	H556	H	0.818069	0.696616	0.150438
	H557	H	0.888684	0.731874	0.163943
	H558	H	0.866617	0.767656	0.183623
	H559	H	0.792777	0.824788	0.258915
	H560	H	0.812207	0.846587	0.295058
	H561	H	0.884525	0.835486	0.262025
	H562	H	0.864660	0.813878	0.226221
	H563	H	0.744574	0.821534	0.210692
	H564	H	0.706978	0.839817	0.190212
	H565	H	0.740327	0.826440	0.118446
	H566	H	0.777616	0.808312	0.139378
	C567	C	0.711596	0.155989	0.854932
	C568	C	0.712069	0.158128	0.828769
	C569	C	0.732162	0.169210	0.816504
	C570	C	0.752478	0.178441	0.830116
	C571	C	0.752070	0.176517	0.856246
	C572	C	0.731928	0.165507	0.868407
	C573	C	0.774481	0.189665	0.817238
	N574	N	0.785044	0.209833	0.827515
	C575	C	0.805414	0.218805	0.815971
	N576	N	0.815179	0.208878	0.795146
	C577	C	0.803474	0.188761	0.786026
	N578	N	0.783046	0.178635	0.796457
	C579	C	0.818173	0.240633	0.827452
	C580	C	0.827468	0.260224	0.812723
	C581	C	0.839649	0.280293	0.823763
	C582	C	0.842843	0.281469	0.849776
	C583	C	0.833350	0.261811	0.864368
	C584	C	0.821257	0.241696	0.853434
	C585	C	0.814007	0.176565	0.763325
	C586	C	0.822983	0.190799	0.743208
	C587	C	0.833211	0.179159	0.722323
	C588	C	0.834713	0.153021	0.720824
	C589	C	0.825505	0.138927	0.740995
	C590	C	0.815347	0.150461	0.761930
	H591	H	0.732756	0.170746	0.796353
	H592	H	0.696586	0.150912	0.817991
	H593	H	0.731978	0.164117	0.888609
	H594	H	0.767806	0.183784	0.866547
	H595	H	0.825042	0.259121	0.792702
	H596	H	0.846845	0.295241	0.812140
	H597	H	0.835559	0.262290	0.884481
	H598	H	0.813950	0.226510	0.864607
	H599	H	0.821916	0.210915	0.744562
	H600	H	0.840227	0.190408	0.706995
	H601	H	0.826438	0.118731	0.740278
	H602	H	0.808286	0.139687	0.777538
